Version 4
SHEET 1 2600 1108
WIRE 1232 -96 1232 -112
WIRE 1376 -48 1376 -64
WIRE 1472 -48 1376 -48
WIRE 1232 0 1232 -16
WIRE 1808 32 1808 0
WIRE 1376 48 1376 32
WIRE 1232 96 1232 64
WIRE 1312 96 1232 96
WIRE 1232 112 1232 96
WIRE 400 160 400 144
WIRE 1472 160 1472 -48
WIRE 1840 160 1776 160
WIRE 1968 176 1904 176
WIRE 2048 176 1968 176
WIRE 2272 176 2048 176
WIRE 848 192 832 192
WIRE 1088 192 1072 192
WIRE 1808 192 1808 112
WIRE 1840 192 1808 192
WIRE 1232 208 1232 192
WIRE 160 240 -144 240
WIRE -144 256 -144 240
WIRE 304 256 224 256
WIRE 400 256 400 240
WIRE 400 256 304 256
WIRE 416 256 400 256
WIRE 544 256 496 256
WIRE 848 256 544 256
WIRE 1376 256 1376 144
WIRE 1376 256 1072 256
WIRE 1776 256 1776 160
WIRE 1776 256 1728 256
WIRE 128 272 48 272
WIRE 160 272 128 272
WIRE 1376 272 1376 256
WIRE 1808 272 1808 192
WIRE 1872 272 1808 272
WIRE 1968 272 1968 176
WIRE 1968 272 1952 272
WIRE 1472 288 1472 256
WIRE 1472 288 1264 288
WIRE 1776 288 1776 256
WIRE 1776 288 1472 288
WIRE 1808 288 1808 272
WIRE 2048 304 2048 176
WIRE 544 320 544 256
WIRE 848 320 720 320
WIRE 1264 320 1264 288
WIRE 1264 320 1072 320
WIRE 1408 352 1408 208
WIRE 1408 352 1376 352
WIRE 1472 352 1472 288
WIRE 128 368 128 272
WIRE 160 368 128 368
WIRE 304 368 304 256
WIRE 304 368 240 368
WIRE 640 368 608 368
WIRE 1376 368 1376 352
WIRE 848 384 768 384
WIRE 1088 384 1072 384
WIRE 640 400 640 368
WIRE 1376 448 1376 432
WIRE 1472 448 1472 432
WIRE 720 480 720 320
WIRE 1056 480 720 480
WIRE 2048 480 2048 384
WIRE 2048 480 1056 480
WIRE 1520 560 896 560
WIRE 1168 624 1152 624
WIRE 1408 624 1392 624
WIRE 896 688 896 560
WIRE 1168 688 896 688
WIRE 1456 688 1392 688
WIRE 640 704 640 480
WIRE 1104 704 640 704
WIRE 304 736 304 368
WIRE 304 736 96 736
WIRE 896 752 896 688
WIRE 944 752 896 752
WIRE 1104 752 1104 704
WIRE 1104 752 1024 752
WIRE 1168 752 1104 752
WIRE 1520 752 1520 560
WIRE 1520 752 1392 752
WIRE 896 816 896 752
WIRE 1168 816 1120 816
WIRE 1440 816 1392 816
WIRE 720 832 560 832
WIRE 736 832 720 832
WIRE 720 848 720 832
WIRE 1120 864 1120 816
WIRE 336 896 288 896
WIRE 592 896 560 896
WIRE 688 896 672 896
WIRE 896 896 896 880
WIRE 1120 896 1120 864
WIRE 160 912 160 880
WIRE 688 928 688 896
WIRE 720 928 688 928
WIRE 976 944 944 944
WIRE 336 960 240 960
WIRE 720 960 720 928
WIRE 720 960 560 960
WIRE 720 976 720 960
WIRE 96 1024 96 736
WIRE 288 1024 288 896
WIRE 288 1024 96 1024
WIRE 336 1024 288 1024
WIRE 240 1072 240 960
WIRE 944 1072 944 944
WIRE 944 1072 240 1072
FLAG 80 16 0
FLAG 80 -64 V+
FLAG 160 16 0
FLAG 160 -64 V-
FLAG 832 192 0
FLAG 1088 192 V+
FLAG 768 384 V+
FLAG 192 224 V+
FLAG 192 288 V-
FLAG 400 144 V+
FLAG -144 336 0
FLAG 48 352 0
FLAG 1056 480 sweep_en
FLAG 1232 208 0
FLAG 1232 -112 V+
FLAG 1376 -64 V+
FLAG 1376 448 0
FLAG 1728 256 x
FLAG 1808 368 0
FLAG 1808 0 V+
FLAG 2272 176 _blank
FLAG 1472 448 V-
FLAG 1152 624 0
FLAG 1408 624 V+
FLAG 896 896 0
FLAG 336 832 0
FLAG 736 832 V+
FLAG 720 1040 0
FLAG 1120 992 0
FLAG 1040 864 V+
FLAG 544 416 0
FLAG 160 880 V+
FLAG 224 272 0
FLAG 1872 144 V+
FLAG 1872 208 V-
FLAG 1904 192 0
SYMBOL voltage 80 -80 R0
WINDOW 123 0 0 Left 2
WINDOW 39 0 0 Left 2
SYMATTR InstName V3
SYMATTR Value 12
SYMBOL voltage 160 -80 R0
WINDOW 123 0 0 Left 2
WINDOW 39 0 0 Left 2
SYMATTR InstName V4
SYMATTR Value -12
SYMBOL Misc\\NE555 960 288 R0
SYMATTR InstName U1
SYMBOL res 416 256 R180
WINDOW 0 36 76 Left 2
WINDOW 3 36 40 Left 2
SYMATTR InstName R5
SYMATTR Value 10k
SYMBOL voltage -144 240 R0
WINDOW 123 0 0 Left 2
WINDOW 39 0 0 Left 2
WINDOW 3 -26 147 Left 2
SYMATTR Value SINE(0 1 100 0.4 0 0 6)
SYMATTR InstName V1
SYMBOL res 32 256 R0
SYMATTR InstName R6
SYMATTR Value 10k
SYMBOL res 256 352 R90
WINDOW 0 0 56 VBottom 2
WINDOW 3 32 56 VTop 2
SYMATTR InstName R7
SYMATTR Value 4.7Meg
SYMBOL pnpr 1312 48 R0
SYMATTR InstName Q1
SYMATTR Value 2N3906
SYMBOL res 1360 -64 R0
SYMATTR InstName R2
SYMATTR Value 3k3
SYMBOL diode 1216 0 R0
SYMATTR InstName D4
SYMATTR Value 1N4148
SYMBOL res 1216 -112 R0
SYMATTR InstName R3
SYMATTR Value 1k
SYMBOL res 1216 96 R0
SYMATTR InstName R8
SYMATTR Value 10k
SYMBOL cap 1360 368 R0
SYMATTR InstName C3
SYMATTR Value 470n
SYMBOL res 1792 16 R0
SYMATTR InstName R9
SYMATTR Value 20k
SYMBOL res 1792 272 R0
SYMATTR InstName R10
SYMATTR Value 20k
SYMBOL res 1968 256 R90
WINDOW 0 0 56 VBottom 2
WINDOW 3 32 56 VTop 2
SYMATTR InstName R11
SYMATTR Value 4.7Meg
SYMBOL res 2032 288 R0
SYMATTR InstName R12
SYMATTR Value 10k
SYMBOL npn 1408 160 R0
SYMATTR InstName Q2
SYMATTR Value 2N3904
SYMBOL res 1456 336 R0
SYMATTR InstName R1
SYMATTR Value 10k
SYMBOL res 1392 368 R180
WINDOW 0 36 76 Left 2
WINDOW 3 36 40 Left 2
SYMATTR InstName R14
SYMATTR Value 100
SYMBOL Misc\\NE555 1280 720 R0
SYMATTR InstName U4
SYMBOL res 1040 736 R90
WINDOW 0 0 56 VBottom 2
WINDOW 3 32 56 VTop 2
SYMATTR InstName R15
SYMATTR Value 75k
SYMBOL cap 880 816 R0
SYMATTR InstName C1
SYMATTR Value 470n
SYMBOL Misc\\NE555 448 928 R0
SYMATTR InstName U5
SYMBOL res 704 832 R0
SYMATTR InstName R16
SYMATTR Value 100k
SYMBOL cap 704 976 R0
SYMATTR InstName C2
SYMATTR Value 3µ3
SYMBOL res 688 880 R90
WINDOW 0 0 56 VBottom 2
WINDOW 3 32 56 VTop 2
SYMATTR InstName R17
SYMATTR Value 100
SYMBOL npn 1056 896 R0
SYMATTR InstName Q3
SYMATTR Value 2N3904
SYMBOL res 1136 848 R90
WINDOW 0 0 56 VBottom 2
WINDOW 3 32 56 VTop 2
SYMATTR InstName R18
SYMATTR Value 100k
SYMBOL res 1072 928 R90
WINDOW 0 0 56 VBottom 2
WINDOW 3 32 56 VTop 2
SYMATTR InstName R20
SYMATTR Value 100k
SYMBOL npn 608 320 M0
SYMATTR InstName Q5
SYMATTR Value 2N3904
SYMBOL res 624 384 R0
SYMATTR InstName R22
SYMATTR Value 100k
SYMBOL res 144 896 R0
SYMATTR InstName R19
SYMATTR Value 33k
SYMBOL Comparators\\LMx11 192 192 R0
SYMATTR InstName U6
SYMBOL res 512 240 R90
WINDOW 0 0 56 VBottom 2
WINDOW 3 32 56 VTop 2
SYMATTR InstName R4
SYMATTR Value 100k
SYMBOL Comparators\\LMx11 1872 112 R0
SYMATTR InstName U2
TEXT 264 16 Left 2 !.lib bipolar.lib
TEXT 264 -24 Left 2 !.tran 2 startup
