Version 4
SHEET 1 2132 700
WIRE 1680 -288 1632 -288
WIRE 1808 -288 1744 -288
WIRE 1840 -288 1808 -288
WIRE 1936 -288 1904 -288
WIRE 1984 -288 1936 -288
WIRE 1808 -256 1808 -288
WIRE 1936 -256 1936 -288
WIRE 688 -224 640 -224
WIRE 768 -224 688 -224
WIRE 688 -192 688 -224
WIRE 768 -192 768 -224
WIRE 1344 -160 1328 -160
WIRE 1488 -160 1424 -160
WIRE 1552 -160 1488 -160
WIRE 1632 -160 1632 -288
WIRE 1632 -160 1552 -160
WIRE 1712 -160 1632 -160
WIRE 1808 -160 1808 -192
WIRE 1808 -160 1776 -160
WIRE 1936 -160 1936 -192
WIRE 1936 -160 1808 -160
WIRE 1488 -144 1488 -160
WIRE 1808 -128 1808 -160
WIRE 2048 -80 2048 -96
WIRE 1808 -48 1808 -64
WIRE 768 -16 768 -112
WIRE 1168 -16 768 -16
WIRE 1440 -16 1168 -16
WIRE 1440 16 1440 -16
WIRE 1488 32 1488 0
WIRE 1552 32 1552 -160
WIRE 1648 32 1552 32
WIRE 1744 32 1712 32
WIRE 1776 32 1744 32
WIRE 1856 32 1840 32
WIRE 1952 32 1856 32
WIRE 2048 32 2048 16
WIRE 768 48 768 -16
WIRE 800 48 768 48
WIRE 1168 48 1168 -16
WIRE 1168 48 1136 48
WIRE 1552 48 1552 32
WIRE 1376 64 1312 64
WIRE 688 128 688 -112
WIRE 800 128 688 128
WIRE 1216 128 1136 128
WIRE 1312 128 1312 64
WIRE 1312 128 1296 128
WIRE 1440 128 1440 112
WIRE 1504 128 1440 128
WIRE 1744 128 1744 32
WIRE 1776 128 1744 128
WIRE 1856 128 1856 96
WIRE 1856 128 1840 128
WIRE 1872 128 1856 128
WIRE 1952 128 1952 96
WIRE 1952 128 1936 128
WIRE 2048 128 2048 112
WIRE 2048 128 1952 128
WIRE 2080 128 2048 128
WIRE 1440 160 1440 128
WIRE 1744 160 1744 128
WIRE 1856 160 1856 128
WIRE 800 208 784 208
WIRE 1152 208 1136 208
WIRE 1312 208 1312 128
WIRE 1376 208 1312 208
WIRE 1984 208 1984 -288
WIRE 1312 224 1312 208
WIRE 1744 240 1744 224
WIRE 1856 240 1856 224
WIRE 800 288 784 288
WIRE 1152 288 1136 288
WIRE 1984 304 1984 288
WIRE 1312 320 1312 304
WIRE 1152 352 1152 288
WIRE 1680 352 1152 352
WIRE 688 384 688 128
WIRE 1680 416 1680 352
WIRE 1904 416 1680 416
WIRE 1984 416 1984 400
WIRE 1984 416 1904 416
WIRE 784 432 752 432
WIRE 832 432 784 432
WIRE 1552 432 1552 144
WIRE 1552 432 912 432
WIRE 1904 432 1904 416
WIRE 1984 432 1984 416
WIRE 1552 448 1552 432
WIRE 784 464 784 432
WIRE 688 496 688 480
WIRE 1904 512 1904 496
WIRE 1984 528 1984 512
WIRE 784 544 784 528
WIRE 1552 544 1552 528
WIRE 688 592 688 576
FLAG 336 -144 0
FLAG 416 -144 0
FLAG 416 -224 V+
FLAG 336 -224 +25
FLAG 784 208 +25
FLAG 1440 256 0
FLAG 1312 320 0
FLAG 784 288 0
FLAG 1552 544 0
FLAG 640 -224 +25
FLAG 688 592 0
FLAG 784 544 0
FLAG 1216 208 0
FLAG 1328 -160 V+
FLAG 1808 -48 0
FLAG 1840 352 0
FLAG 1984 528 0
FLAG 1904 512 0
FLAG 1744 240 0
FLAG 1856 240 0
FLAG 2048 -96 0
FLAG 1488 32 0
SYMBOL voltage 336 -240 R0
WINDOW 123 0 0 Left 2
WINDOW 39 24 44 Left 2
SYMATTR InstName V1
SYMATTR Value 25
SYMATTR SpiceLine Rser=0.1
SYMBOL voltage 416 -240 R0
WINDOW 123 0 0 Left 2
WINDOW 39 24 44 Left 2
SYMATTR InstName V2
SYMATTR Value 30
SYMATTR SpiceLine Rser=.01
SYMBOL res 672 -208 R0
SYMATTR InstName R1
SYMATTR Value 100
SYMBOL res 752 -208 R0
SYMATTR InstName R2
SYMATTR Value 2.2
SYMBOL nmos 1504 48 R0
SYMATTR InstName M1
SYMATTR Value R6020PNJ
SYMBOL pnpr 1376 160 R0
SYMATTR InstName Q1
SYMATTR Value 2N3906
SYMBOL res 1296 208 R0
SYMATTR InstName R3
SYMATTR Value 4k7
SYMBOL res 1536 432 R0
SYMATTR InstName R4
SYMATTR Value 0.33
SYMBOL npn 752 384 M0
SYMATTR InstName Q2
SYMATTR Value 2N3904
SYMBOL res 672 480 R0
SYMATTR InstName R5
SYMATTR Value 100
SYMBOL res 928 416 R90
WINDOW 0 0 56 VBottom 2
WINDOW 3 32 56 VTop 2
SYMATTR InstName R6
SYMATTR Value 1k
SYMBOL cap 768 464 R0
SYMATTR InstName C1
SYMATTR Value 100p
SYMBOL cap 1216 192 R90
WINDOW 0 0 32 VBottom 2
WINDOW 3 32 32 VTop 2
SYMATTR InstName C2
SYMATTR Value 680p
SYMBOL ind 1328 -144 R270
WINDOW 0 32 56 VTop 2
WINDOW 3 5 56 VBottom 2
SYMATTR InstName L1
SYMATTR Value 150µ
SYMATTR SpiceLine Rser=0.01
SYMBOL diode 1712 -144 R270
WINDOW 0 32 32 VTop 2
WINDOW 3 0 32 VBottom 2
SYMATTR InstName D2
SYMATTR Value UF4007
SYMBOL cap 1792 -128 R0
SYMATTR InstName C3
SYMATTR Value 3µ3
SYMATTR SpiceLine Rser=2
SYMBOL diode 1824 -192 R180
WINDOW 0 24 64 Left 2
WINDOW 3 24 0 Left 2
SYMATTR InstName D3
SYMATTR Value UF4007
SYMBOL cap 1744 -304 R90
WINDOW 0 0 32 VBottom 2
WINDOW 3 32 32 VTop 2
SYMATTR InstName C4
SYMATTR Value 1µ
SYMATTR SpiceLine Rser=3
SYMBOL diode 1840 -272 R270
WINDOW 0 32 32 VTop 2
WINDOW 3 0 32 VBottom 2
SYMATTR InstName D4
SYMATTR Value UF4007
SYMBOL cap 1952 -192 R180
WINDOW 0 24 56 Left 2
WINDOW 3 24 8 Left 2
SYMATTR InstName C5
SYMATTR Value 1µ
SYMATTR SpiceLine Rser=3
SYMBOL res 1968 192 R0
SYMATTR InstName R7
SYMATTR Value 470k
SYMBOL pnpr 1920 304 R0
SYMATTR InstName Q3
SYMATTR Value 2N3906
SYMBOL voltage 1936 352 R90
WINDOW 0 -32 56 VBottom 2
WINDOW 3 32 56 VTop 2
WINDOW 123 0 0 Left 2
WINDOW 39 0 0 Left 2
SYMATTR InstName V3
SYMATTR Value 15
SYMBOL res 1968 416 R0
SYMATTR InstName R8
SYMATTR Value 1k6
SYMBOL cap 1888 432 R0
SYMATTR InstName C6
SYMATTR Value 10n
SYMBOL PowerProducts\\MC\\MC34063 1040 144 R0
SYMATTR InstName U1
SYMBOL cap 1648 48 R270
WINDOW 0 32 32 VTop 2
WINDOW 3 0 32 VBottom 2
SYMATTR InstName C7
SYMATTR Value 1µ
SYMATTR SpiceLine Rser=3
SYMBOL diode 1728 160 R0
SYMATTR InstName D5
SYMATTR Value UF4007
SYMBOL diode 1840 112 R90
WINDOW 0 0 32 VBottom 2
WINDOW 3 32 32 VTop 2
SYMATTR InstName D6
SYMATTR Value UF4007
SYMBOL diode 1840 32 R0
SYMATTR InstName D7
SYMATTR Value UF4007
SYMBOL cap 1776 48 R270
WINDOW 0 32 32 VTop 2
WINDOW 3 0 32 VBottom 2
SYMATTR InstName C8
SYMATTR Value 1µ
SYMATTR SpiceLine Rser=3
SYMBOL cap 1840 160 R0
SYMATTR InstName C9
SYMATTR Value 1µ
SYMATTR SpiceLine Rser=3
SYMBOL diode 1968 96 R180
WINDOW 0 24 64 Left 2
WINDOW 3 24 0 Left 2
SYMATTR InstName D8
SYMATTR Value UF4007
SYMBOL cap 1936 112 R90
WINDOW 0 0 32 VBottom 2
WINDOW 3 32 32 VTop 2
SYMATTR InstName C10
SYMATTR Value 1µ
SYMATTR SpiceLine Rser=3
SYMBOL res 2032 16 R0
SYMATTR InstName R9
SYMATTR Value 200k
SYMBOL npn 1376 16 R0
SYMATTR InstName Q4
SYMATTR Value 2N3904
SYMBOL res 1312 112 R90
WINDOW 0 0 56 VBottom 2
WINDOW 3 32 56 VTop 2
SYMATTR InstName R10
SYMATTR Value 4k7
SYMBOL Misc\\neonbulb 2048 -32 R0
SYMATTR InstName U2
SYMBOL res 1472 -160 R0
SYMATTR InstName R11
SYMATTR Value 330
SYMBOL cap 1472 -64 R0
SYMATTR InstName C11
SYMATTR Value 100p
TEXT 360 -80 Left 2 !.lib diode.lib
TEXT 328 -48 Left 2 !.tran 1 uic
