Version 4
SHEET 1 3576 740
WIRE 1856 -288 1808 -288
WIRE 1984 -288 1920 -288
WIRE 2016 -288 1984 -288
WIRE 2112 -288 2080 -288
WIRE 2160 -288 2112 -288
WIRE 2272 -288 2160 -288
WIRE 1984 -256 1984 -288
WIRE 2112 -256 2112 -288
WIRE 1360 -160 1120 -160
WIRE 1440 -160 1360 -160
WIRE 1728 -160 1520 -160
WIRE 1808 -160 1808 -288
WIRE 1808 -160 1728 -160
WIRE 1824 -160 1808 -160
WIRE 1984 -160 1984 -192
WIRE 1984 -160 1888 -160
WIRE 2112 -160 2112 -192
WIRE 2112 -160 1984 -160
WIRE 1360 -144 1360 -160
WIRE 1984 -128 1984 -160
WIRE 2560 -80 2560 -96
WIRE 1152 -64 1136 -64
WIRE 1264 -64 1232 -64
WIRE 1360 -64 1360 -80
WIRE 1984 -48 1984 -64
WIRE 2272 -48 2272 -288
WIRE 800 -16 720 -16
WIRE 1040 -16 800 -16
WIRE 1264 32 1264 -64
WIRE 1728 32 1728 -160
WIRE 1744 32 1728 32
WIRE 1792 32 1744 32
WIRE 1856 32 1792 32
WIRE 1952 32 1920 32
WIRE 2032 32 2016 32
WIRE 2128 32 2032 32
WIRE 2560 32 2560 16
WIRE 1600 48 1552 48
WIRE 1696 48 1664 48
WIRE 1728 48 1728 32
WIRE 1744 48 1744 32
WIRE 800 80 800 -16
WIRE 720 96 720 -16
WIRE 1040 96 1040 -16
WIRE 1104 96 1040 96
WIRE 2160 112 2160 -288
WIRE 1472 128 1424 128
WIRE 1552 128 1552 48
WIRE 1552 128 1536 128
WIRE 1616 128 1552 128
WIRE 1680 128 1616 128
WIRE 1696 128 1696 48
WIRE 1920 128 1920 32
WIRE 1952 128 1920 128
WIRE 2032 128 2032 96
WIRE 2032 128 2016 128
WIRE 2048 128 2032 128
WIRE 2128 128 2128 96
WIRE 2128 128 2112 128
WIRE 2272 128 2272 32
WIRE 2272 128 2128 128
WIRE 2560 128 2560 112
WIRE 2560 128 2272 128
WIRE 1744 144 1728 144
WIRE 1792 144 1792 32
WIRE 800 160 720 160
WIRE 1104 160 800 160
WIRE 1920 160 1920 128
WIRE 2032 160 2032 128
WIRE 2160 208 2160 192
WIRE 688 224 640 224
WIRE 1104 224 688 224
WIRE 1920 240 1920 224
WIRE 2032 240 2032 224
WIRE 640 256 640 224
WIRE 1536 256 1424 256
WIRE 1584 256 1536 256
WIRE 1728 256 1728 144
WIRE 1728 256 1664 256
WIRE 1536 272 1536 256
WIRE 688 288 688 224
WIRE 1104 288 768 288
WIRE 1728 320 1728 256
WIRE 1792 320 1792 288
WIRE 1792 320 1728 320
WIRE 688 384 688 368
WIRE 768 384 768 288
WIRE 768 384 688 384
WIRE 688 400 688 384
WIRE 1040 416 1040 96
WIRE 1856 416 1040 416
WIRE 1904 416 1856 416
WIRE 2080 416 1984 416
WIRE 2160 416 2160 288
WIRE 2160 416 2080 416
WIRE 1728 448 1728 320
WIRE 2160 448 2160 416
WIRE 1856 496 1856 416
WIRE 1888 496 1856 496
WIRE 2112 496 1968 496
WIRE 2080 528 2080 416
WIRE 2160 544 2160 528
WIRE 448 624 448 512
WIRE 528 624 528 512
WIRE 528 624 448 624
WIRE 640 624 640 320
WIRE 640 624 528 624
WIRE 688 624 688 464
WIRE 688 624 640 624
WIRE 784 624 688 624
WIRE 1072 624 1072 -48
WIRE 1072 624 784 624
WIRE 1264 624 1264 352
WIRE 1264 624 1072 624
WIRE 1536 624 1536 336
WIRE 1536 624 1264 624
WIRE 1728 624 1728 528
WIRE 1728 624 1536 624
WIRE 2080 624 2080 592
WIRE 2080 624 1728 624
WIRE 2160 624 2080 624
WIRE 784 640 784 624
FLAG 528 432 V+
FLAG 448 432 +25
FLAG 1984 -48 0
FLAG 1920 240 0
FLAG 2032 240 0
FLAG 2560 -96 0
FLAG 1120 -160 +25
FLAG 1360 -64 0
FLAG 784 640 0
FLAG 1616 192 0
FLAG 1136 -64 0
SYMBOL voltage 448 416 R0
WINDOW 123 0 0 Left 2
WINDOW 39 24 44 Left 2
SYMATTR SpiceLine Rser=0.1
SYMATTR InstName V1
SYMATTR Value 12
SYMBOL voltage 528 416 R0
WINDOW 123 0 0 Left 2
WINDOW 39 24 44 Left 2
SYMATTR SpiceLine Rser=.01
SYMATTR InstName V2
SYMATTR Value 30
SYMBOL res 1712 432 R0
SYMATTR InstName R4
SYMATTR Value {0.27/2}
SYMBOL ind 1424 -144 R270
WINDOW 0 32 56 VTop 2
WINDOW 3 5 56 VBottom 2
SYMATTR InstName L1
SYMATTR Value 150µ
SYMATTR SpiceLine Rser=0.071
SYMBOL diode 1824 -144 R270
WINDOW 0 32 32 VTop 2
WINDOW 3 0 32 VBottom 2
SYMATTR InstName D2
SYMATTR Value UF4007
SYMBOL cap 1968 -128 R0
SYMATTR InstName C3
SYMATTR Value 3µ3
SYMATTR SpiceLine Rser=0.15
SYMBOL diode 2000 -192 R180
WINDOW 0 24 64 Left 2
WINDOW 3 24 0 Left 2
SYMATTR InstName D3
SYMATTR Value UF4007
SYMBOL cap 1920 -304 R90
WINDOW 0 0 32 VBottom 2
WINDOW 3 32 32 VTop 2
SYMATTR InstName C4
SYMATTR Value 1µ
SYMATTR SpiceLine Rser=0.2
SYMBOL diode 2016 -272 R270
WINDOW 0 32 32 VTop 2
WINDOW 3 0 32 VBottom 2
SYMATTR InstName D4
SYMATTR Value UF4007
SYMBOL cap 2128 -192 R180
WINDOW 0 24 56 Left 2
WINDOW 3 24 8 Left 2
SYMATTR InstName C5
SYMATTR Value 1µ
SYMATTR SpiceLine Rser=0.2
SYMBOL res 2144 192 R0
SYMATTR InstName R7
SYMATTR Value 330k
SYMBOL res 2144 528 R0
SYMATTR InstName R8
SYMATTR Value 3k9
SYMBOL cap 2064 528 R0
SYMATTR InstName C6
SYMATTR Value 100p
SYMBOL cap 1856 48 R270
WINDOW 0 32 32 VTop 2
WINDOW 3 0 32 VBottom 2
SYMATTR InstName C7
SYMATTR Value 1µ
SYMATTR SpiceLine Rser=0.2
SYMBOL diode 1904 160 R0
SYMATTR InstName D5
SYMATTR Value UF4007
SYMBOL diode 2016 112 R90
WINDOW 0 0 32 VBottom 2
WINDOW 3 32 32 VTop 2
SYMATTR InstName D6
SYMATTR Value UF4007
SYMBOL diode 2016 32 R0
SYMATTR InstName D7
SYMATTR Value UF4007
SYMBOL cap 1952 48 R270
WINDOW 0 32 32 VTop 2
WINDOW 3 0 32 VBottom 2
SYMATTR InstName C8
SYMATTR Value {5*22n}
SYMATTR SpiceLine Rser=0.2
SYMBOL cap 2016 160 R0
SYMATTR InstName C9
SYMATTR Value 3µ3
SYMATTR SpiceLine Rser=0.15
SYMBOL diode 2144 96 R180
WINDOW 0 24 64 Left 2
WINDOW 3 24 0 Left 2
SYMATTR InstName D8
SYMATTR Value UF4007
SYMBOL cap 2112 112 R90
WINDOW 0 0 32 VBottom 2
WINDOW 3 32 32 VTop 2
SYMATTR InstName C10
SYMATTR Value 1µ
SYMATTR SpiceLine Rser=0.2
SYMBOL res 2544 16 R0
SYMATTR InstName R9
SYMATTR Value 390k
SYMBOL Misc\\neonbulb 2560 -32 R0
SYMATTR InstName U2
SYMATTR Value2 Vstrike=90 Vhold=65
SYMBOL res 816 176 R180
WINDOW 0 36 76 Left 2
WINDOW 3 36 40 Left 2
SYMATTR InstName R5
SYMATTR Value 150k
SYMBOL cap 736 160 R180
WINDOW 0 24 56 Left 2
WINDOW 3 24 8 Left 2
SYMATTR InstName C1
SYMATTR Value 470p
SYMBOL res 672 272 R0
SYMATTR InstName R6
SYMATTR Value 7k5
SYMBOL cap 672 400 R0
SYMATTR InstName C2
SYMATTR Value 10n
SYMBOL res 1680 240 R90
WINDOW 0 0 56 VBottom 2
WINDOW 3 32 56 VTop 2
SYMATTR InstName R10
SYMATTR Value 3k3
SYMBOL cap 1520 272 R0
SYMATTR InstName C12
SYMATTR Value 100p
SYMBOL res 1984 480 R90
WINDOW 0 0 56 VBottom 2
WINDOW 3 32 56 VTop 2
SYMATTR InstName R12
SYMATTR Value 3k3
SYMBOL cap 624 256 R0
SYMATTR InstName C13
SYMATTR Value 100n
SYMBOL cap 1344 -144 R0
SYMATTR InstName C15
SYMATTR Value 470µ
SYMATTR SpiceLine Rser=.05
SYMBOL Pots_Switches\\pot 2176 432 M0
WINDOW 3 -171 91 Left 2
SYMATTR Value Rt=500 set=.5
SYMATTR InstName U3
SYMBOL res 2000 400 R90
WINDOW 0 0 56 VBottom 2
WINDOW 3 32 56 VTop 2
SYMATTR InstName R2
SYMATTR Value 10k
SYMBOL schottky 1632 192 R180
WINDOW 0 24 64 Left 2
WINDOW 3 24 0 Left 2
SYMATTR InstName D10
SYMATTR Value MBR0530L
SYMATTR Description Diode
SYMATTR Type diode
SYMBOL res 2144 96 R0
SYMATTR InstName R13
SYMATTR Value 330k
SYMBOL nmos-subckt 1680 48 R0
SYMATTR InstName U4
SYMATTR Value IPS70R1K4CE_L0
SYMBOL FerriteBead 1504 128 R90
WINDOW 0 -16 0 VBottom 2
SYMATTR InstName L2
SYMATTR Value 377n
SYMATTR SpiceLine Ipk=3 Rser=0.027 Rpar=177 Cpar=847f mfg="Würth Elektronik" pn="742792023 WE-CBF 0805"
SYMBOL cap 1776 144 R0
SYMATTR InstName C11
SYMATTR Value 100p
SYMBOL res 1776 192 R0
SYMATTR InstName R3
SYMATTR Value 1k5
SYMBOL voltage 1248 -64 R90
WINDOW 0 -32 56 VBottom 2
WINDOW 3 32 56 VTop 2
WINDOW 123 0 0 Left 2
WINDOW 39 0 0 Left 2
SYMATTR InstName V3
SYMATTR Value 9
SYMBOL res 2256 -64 R0
SYMATTR InstName R11
SYMATTR Value 80k
SYMBOL PowerProducts\\LT1243 1264 192 R0
SYMATTR InstName U5
SYMBOL nmos-subckt 1696 48 R0
SYMATTR InstName U1
SYMATTR Value IPS70R1K4CE_L0
SYMBOL FerriteBead 1632 48 R90
WINDOW 0 -16 0 VBottom 2
SYMATTR InstName L3
SYMATTR Value 377n
SYMATTR SpiceLine Ipk=3 Rser=0.027 Rpar=177 Cpar=847f mfg="Würth Elektronik" pn="742792023 WE-CBF 0805"
TEXT 360 -80 Left 2 !.lib diode.lib
TEXT 328 -48 Left 2 !.tran 1 uic startup
TEXT 2232 368 Left 2 !.lib SimulationModel_PowerMOSFET_PSpice_700V_CoolMOS_CE.LIB
TEXT 1456 16 Left 2 ;(IPN70R1K5CEATMA1)
